92
ACRDIN11.cif (converted)
N 9.480550 4.301036 5.256944
C 8.649318 3.880308 6.180859
C 8.349005 4.695060 7.286879
H 8.781925 5.536515 7.369897
C 7.457170 4.320025 8.244269
H 7.287401 4.899193 8.978045
C 6.773518 3.066149 8.162590
H 6.128566 2.811577 8.812008
C 7.085367 2.246057 7.106113
H 6.661832 1.397481 7.059248
C 7.961675 2.575399 6.128637
C 8.323159 1.760647 5.005210
H 7.951151 0.888928 4.944955
C 9.141375 2.154672 4.053176
C 9.507126 1.420624 2.892256
H 9.161983 0.541190 2.793170
C 10.302555 1.890604 1.936205
H 10.467411 1.360096 1.166276
C 10.920288 3.187205 2.043325
H 11.511183 3.531383 1.383195
C 10.568482 3.915319 3.227008
H 10.956309 4.776357 3.331451
C 9.740218 3.498152 4.211179
N 6.132702 1.333986 1.438094
C 6.963934 0.913258 0.514179
C 7.264248 1.728010 -0.591841
H 6.831327 2.569465 -0.674860
C 8.156083 1.352975 -1.549232
H 8.325851 1.932143 -2.283008
C 8.839735 0.099099 -1.467552
H 9.484686 -0.155473 -2.116971
C 8.527885 -0.720993 -0.411075
H 8.951420 -1.569569 -0.364210
C 7.651577 -0.391651 0.566400
C 7.290093 -1.206403 1.689827
H 7.662101 -2.078122 1.750083
C 6.471877 -0.812378 2.641862
C 6.106126 -1.546426 3.802781
H 6.451269 -2.425860 3.901868
C 5.310697 -1.076446 4.758833
H 5.145841 -1.606954 5.528762
C 4.692964 0.220155 4.651712
H 4.102070 0.564333 5.311843
C 5.044770 0.948269 3.468029
H 4.656943 1.809307 3.363587
C 5.873034 0.531102 2.483859
N -0.620046 1.633064 8.133132
C 0.211186 2.053792 7.209216
C 0.511500 1.239040 6.103196
H 0.078579 0.397585 6.020178
C 1.403335 1.614075 5.145806
H 1.573103 1.034907 4.412030
C 2.086987 2.867951 5.227485
H 2.731939 3.122523 4.578067
C 1.775137 3.688043 6.283962
H 2.198672 4.536619 6.330828
C 0.898830 3.358701 7.261438
C 0.537345 4.173453 8.384865
H 0.909353 5.045172 8.445120
C -0.280871 3.779428 9.336899
C -0.646622 4.513476 10.497819
H -0.301479 5.392910 10.596906
C -1.442051 4.043496 11.453870
H -1.606907 4.574004 12.223800
C -2.059783 2.746895 11.346750
H -2.650678 2.402717 12.006880
C -1.707978 2.018781 10.163067
H -2.095805 1.157743 10.058624
C -0.879714 2.435948 9.178897
N 2.727802 4.600114 11.951981
C 1.896570 5.020842 12.875896
C 1.596257 4.206090 13.981917
H 2.029177 3.364635 14.064935
C 0.704422 4.581125 14.939307
H 0.534653 4.001957 15.673083
C 0.020770 5.835001 14.857627
H -0.624182 6.089573 15.507046
C 0.332619 6.655093 13.801151
H -0.090916 7.503669 13.754285
C 1.208927 6.325751 12.823675
C 1.570411 7.140503 11.700248
H 1.198404 8.012222 11.639992
C 2.388628 6.746478 10.748213
C 2.754378 7.480526 9.587294
H 2.409235 8.359960 9.488207
C 3.549807 7.010546 8.631242
H 3.714663 7.541054 7.861313
C 4.167540 5.713945 8.738363
H 4.758435 5.369767 8.078232
C 3.815734 4.985831 9.922046
H 4.203561 4.124793 10.026488
C 2.987470 5.402998 10.906216
