92
ACRDIN12.cif (converted)
N 1.727004 1.303806 0.300363
C 1.429368 0.037145 -1.682031
C 1.950866 -0.594327 -2.783361
C 3.329363 -0.589375 -3.052352
C 4.179616 0.084196 -2.220681
C 4.521092 1.428862 -0.170873
C 4.743889 2.835437 1.852904
C 4.170458 3.402524 2.954901
C 2.775661 3.293564 3.143796
C 1.983128 2.600182 2.276082
C 2.274791 0.728051 -0.747569
C 3.687095 0.746624 -1.046597
C 3.964323 2.049191 0.938466
C 2.535097 1.953851 1.112009
H 0.492867 0.024764 -1.528512
H 1.365792 -1.064837 -3.364062
H 3.669507 -1.037597 -3.817943
H 5.111580 0.087911 -2.404904
H 5.456584 1.467246 -0.327729
H 5.677796 2.934491 1.708730
H 4.701221 3.900273 3.570978
H 2.386922 3.702164 3.911389
H 1.047756 2.538273 2.429600
N 3.795113 7.494716 3.037000
C 4.092750 6.228055 5.019394
C 3.571251 5.596583 6.120724
C 2.192754 5.601535 6.389715
C 1.342502 6.275106 5.558044
C 1.001025 7.619772 3.508236
C 0.778228 9.026347 1.484459
C 1.351659 9.593434 0.382462
C 2.746457 9.484474 0.193567
C 3.538989 8.791092 1.061281
C 3.247326 6.918961 4.084932
C 1.835022 6.937534 4.383960
C 1.557794 8.240101 2.398897
C 2.987021 8.144761 2.225354
H 5.029250 6.215674 4.865875
H 4.156325 5.126073 6.701425
H 1.852611 5.153313 7.155306
H 0.410538 6.278821 5.742267
H 0.065533 7.658156 3.665092
H -0.155679 9.125401 1.628633
H 0.820896 10.091183 -0.233615
H 3.135196 9.893074 -0.574026
H 4.474361 8.729183 0.907763
N 9.317231 11.078014 6.374363
C 9.614867 12.344675 8.356757
C 9.093369 12.976147 9.458087
C 7.714872 12.971195 9.727078
C 6.864619 12.297624 8.895407
C 6.523143 10.952958 6.845599
C 6.300346 9.546383 4.821822
C 6.873777 8.979296 3.719825
C 8.268574 9.088256 3.530930
C 9.061107 9.781638 4.398644
C 8.769444 11.653769 7.422295
C 7.357140 11.635196 7.721323
C 7.079911 10.332629 5.736260
C 8.509138 10.427969 5.562717
H 10.551368 12.357056 8.203238
H 9.678443 13.446657 10.038788
H 7.374728 13.419417 10.492669
H 5.932655 12.293909 9.079630
H 5.587651 10.914574 7.002455
H 5.366439 9.447329 4.965996
H 6.343014 8.481547 3.103748
H 8.657313 8.679656 2.763337
H 9.996479 9.843547 4.245126
N 7.249122 4.887104 3.637726
C 6.951485 6.153765 1.655332
C 7.472983 6.785237 0.554002
C 8.851481 6.780285 0.285011
C 9.701733 6.106714 1.116682
C 10.043209 4.762048 3.166490
C 10.266007 3.355473 5.190267
C 9.692576 2.788386 6.292264
C 8.297778 2.897346 6.481159
C 7.505246 3.590728 5.613445
C 7.796909 5.462859 2.589794
C 9.209213 5.444286 2.290766
C 9.486441 4.141719 4.275829
C 8.057214 4.237059 4.449372
H 6.014985 6.166146 1.808851
H 6.887910 7.255747 -0.026699
H 9.191624 7.228507 -0.480580
H 10.633697 6.102999 0.932459
H 10.978702 4.723664 3.009634
H 11.199914 3.256419 5.046093
H 10.223338 2.290637 6.908341
H 7.909039 2.488746 7.248752
H 6.569874 3.652637 5.766963
